24
Energy = -538.7958853186
C     3.6918702    0.5855512    0.0014234 
C     3.6418064   -0.8425545    0.0014160 
C     2.4335767   -1.4960108   -0.0001795 
C     1.2004898   -0.7664153   -0.0015915 
C     2.5323346    1.3219899   -0.0001486 
C     1.2511929    0.6804994   -0.0015842 
C    -0.0492458   -1.4053014   -0.0020983 
C    -1.2511954   -0.6805031   -0.0021605 
C     0.0492451    1.4053046   -0.0021148 
C    -1.2004890    0.7664114   -0.0021733 
C    -2.5323347   -1.3219901   -0.0006798 
C    -3.6918697   -0.5855529    0.0016161 
C    -3.6418058    0.8425527    0.0015880 
C    -2.4335776    1.4960106   -0.0006925 
H     4.6635416    1.0898456    0.0027480 
H     4.5757745   -1.4136648    0.0027773 
H     2.3936073   -2.5904638   -0.0001433 
H     2.5691085    2.4165736   -0.0000291 
H    -0.0876400   -2.5001844   -0.0016073 
H     0.0876390    2.5001953   -0.0016421 
H    -2.5691044   -2.4165689   -0.0008040 
H    -4.6635367   -1.0898523    0.0035095 
H    -4.5757760    1.4136601    0.0033563 
H    -2.3936123    2.5904687   -0.0007859 
