36
Energy =
C    -2.7983490   -2.4744338    0.0000000 
C    -1.3714272   -2.4758848    0.0000000 
C    -0.6925538   -1.2502987    0.0000000 
C    -1.4290559   -0.0253768    0.0000000 
C    -2.8298791   -0.0502532    0.0000000 
C    -3.4977425   -1.3112263    0.0000000 
C     0.7365105   -1.2249227    0.0000000 
C    -0.7365106    1.2249226    0.0000000 
C     0.6925538    1.2502987    0.0000000 
C     1.4290559    0.0253769    0.0000000 
C     1.3714272    2.4758848    0.0000000 
C     0.6133112    3.6847555    0.0000000 
C    -0.7437497    3.6606566    0.0000000 
C    -1.4584685    2.4256318    0.0000000 
C    -2.8844391    2.3735187    0.0000000 
C    -3.5420921    1.1862123    0.0000000 
H    -4.6244580    1.1640196    0.0000000 
H    -3.4397569    3.3028330    0.0000000 
H    -3.3203196   -3.4228795    0.0000000 
H    -4.5802137   -1.3274764    0.0000000 
H     1.1404606    4.6303359    0.0000000 
H    -1.3041399    4.5869242    0.0000000 
C    -0.6133113   -3.6847553    0.0000000 
C     0.7437498   -3.6606565    0.0000000 
C     1.4584685   -2.4256319    0.0000000 
H    -1.1404605   -4.6303359    0.0000000 
H     1.3041396   -4.5869243    0.0000000 
C     2.8844393   -2.3735188    0.0000000 
C     3.5420922   -1.1862125    0.0000000 
C     2.8298791    0.0502533    0.0000000 
H     3.4397570   -3.3028330    0.0000000 
H     4.6244581   -1.1640196    0.0000000 
C     2.7983488    2.4744338    0.0000000 
H     3.3203195    3.4228795    0.0000000 
C     3.4977425    1.3112262    0.0000000 
H     4.5802136    1.3274766    0.0000000 
