66
Energy = -1612.805671565
C     3.3750334    0.4835545   -0.0129850 
C     3.2786530   -0.9748827    0.0067494 
C     2.0267746   -1.5749918    0.0239819 
C     0.8248450   -0.8140226    0.0256572 
C     2.2130323    1.2434068   -0.0143211 
C     0.9214411    0.6475267    0.0055717 
C    -0.4374550   -1.4132809    0.0471142 
C    -1.6307731   -0.6526663    0.0529240 
C    -0.2509741    1.4080515    0.0079555 
C    -1.5339897    0.8115567    0.0323344 
C    -2.8989698   -1.2508510    0.0791850 
C    -4.0874265   -0.4903957    0.0885992 
C    -3.9905494    0.9751182    0.0673883 
C     4.6852646    1.0820088   -0.0298003 
C     4.4987392   -1.7407395    0.0081711 
H     1.9551628   -2.6679174    0.0389702 
H     2.2858707    2.3362446   -0.0291123 
H    -0.5091283   -2.5060398    0.0624442 
H    -0.1781845    2.5007225   -0.0070669 
H    -2.9709355   -2.3435512    0.0949222 
C     5.8146474    0.3104237   -0.0261970 
C     5.7198149   -1.1246276   -0.0070723 
H     4.7568200    2.1747134   -0.0445736 
H     4.4258917   -2.8333647    0.0227895 
H    -7.8916090   -2.0173202    0.1786757 
H   -10.3520380   -1.8536510    0.2222483 
C    -7.8192863   -0.9246653    0.1620128 
C    -6.5444336   -0.3275426    0.1299481 
H   -12.8136172   -1.6895443    0.2625566 
C   -10.2795235   -0.7610042    0.2051289 
C    -9.0013829   -0.1642469    0.1730486 
H   -15.2775530   -1.5247237    0.2981031 
C    -6.4475219    1.1383580    0.1080582 
C   -12.7408118   -0.5968896    0.2450264 
C   -11.4578557   -0.0005339    0.2143562 
H   -17.7483955   -1.3627848    0.3295910 
C    -8.9044868    1.3012454    0.1504991 
C   -15.2046757   -0.4319221    0.2803136 
C    -7.6326242    1.8987598    0.1192060 
C   -13.9131473    0.1637541    0.2517133 
C   -11.3610339    1.4636482    0.1912237 
C   -17.6767555   -0.2701320    0.3115461 
C   -10.0928929    2.0617347    0.1610890 
C   -16.3665773    0.3280840    0.2846115 
H    -7.5604710    2.9913883    0.1027335 
C   -13.8164950    1.6252450    0.2281346 
H   -19.7943679    0.0313736    0.3342512 
C   -18.8060317    0.5016293    0.3140329 
C   -12.5542664    2.2243489    0.1999373 
H   -10.0209305    3.1543843    0.1441161 
C   -16.2701277    1.7864478    0.2607538 
C   -15.0183154    2.3863518    0.2344662 
H   -12.4825870    3.3170548    0.1825486 
C   -18.7111313    1.9366100    0.2904112 
C   -17.4900982    2.5524881    0.2651651 
H   -14.9466821    3.4792230    0.2167149 
H   -19.6289085    2.5332992    0.2930395 
H   -17.4172364    3.6450589    0.2473046 
C    -2.7123708    1.5719474    0.0389502 
H    -2.6398597    2.6645870    0.0235064 
C    -5.1726625    1.7354926    0.0771966 
C    -5.3593154   -1.0879531    0.1186931 
H    -5.4314720   -2.1806245    0.1348831 
H    -5.1003408    2.8281195    0.0612568 
H     6.8030296    0.7808568   -0.0383120 
H     6.6376879   -1.7211684   -0.0050094 
